! HF-3c Opt TightSCF

%geom
	optimizehydrogens true
end

*xyz 0 1 
H 94.053101 95.579651 -47.388393
H 93.333061 96.482246 -50.216503
H 91.442993 94.847305 -49.949322
H 93.050354 94.087502 -50.027538
H 92.223206 94.262146 -48.460743
H 94.666161 98.048378 -48.742676
H 91.951332 97.732941 -49.190563
N 94.934998 97.276001 -48.150002
C 94.320999 95.968002 -48.370998
C 95.289001 94.991997 -49.035999
O 95.830002 95.273003 -50.103001
C 93.049004 96.089996 -49.240002
O 92.116997 96.985001 -48.612000
C 92.394997 94.723999 -49.432999
*