14
Coordinates from ORCA-job Thr150_tightOptimization E -357.152757813494
  H          93.91990162390000     95.65773445800934    -47.40802070273314
  H          93.30801141922426     96.45326275144602    -50.28726030944897
  H          91.50305787251216     94.70807132341224    -50.08022535427754
  H          93.12129838847984     94.02156982836570    -49.95734939471789
  H          92.14704882947719     94.26063456761750    -48.50357598633570
  H          94.85506883559930     97.81208162807958    -49.13643705106401
  H          92.40539457746341     97.77479382802888    -48.46866582462970
  N          94.74547789662638     97.40739795327211    -48.18713620670538
  C          94.21005688312637     96.06087750851445    -48.37923622156991
  C          95.25709383120800     95.11109817116446    -48.95670726721396
  O          95.83342498409731     95.37660287965014    -50.00908047601286
  C          92.97644408059662     96.08001704769771    -49.30974946801626
  O          91.97120109702276     96.94937143511918    -48.76406915732202
  C          92.40272568066545     94.67465461962193    -49.47322557995207
