24
Coordinates from ORCA-job haloligand_TightOptimization E -495.502958156903
  H          90.80168929210453     97.08085116300965    -46.57193000915602
  H          92.25424626177364     92.23243626565939    -43.62014550329094
  H          90.85177323196794     94.73304235238619    -46.82556049562201
  H          93.36981504377900     97.51533769262811    -45.23402558083308
  H          92.83696745506127     98.70762621408545    -46.43002100783585
  H          93.28028121980998     99.22172331444800    -44.79350399695687
  H          89.67228356372728     99.33698274119703    -44.48721496647420
  H          91.16485603254478    100.27375247266684    -44.43928861083612
  H          89.66147461737228     97.20529219629306    -45.24532056053374
  H          90.46877730415387     99.80865327214572    -45.99619638851848
  H          91.79874086904486     96.44504932468676    -41.87835397844324
  C          91.17469978489058     95.74176517378373    -44.95300334549989
  C          91.58261400445602     95.57252923728750    -43.62458638056314
  C          91.97116937928757     94.32016163893111    -43.15551062963478
  C          90.72099052700335     97.09413322540563    -45.48246714881835
  N          91.42488773426147     98.24045329671003    -44.87640056421961
  C          91.95438821015799     93.19930115960075    -43.99831304740559
  C          91.16184668115564     94.61186174357189    -45.79780113182746
  C          92.80233347114554     98.43400738251201    -45.37232705513890
  C          91.54751575625087     93.34955073194226    -45.32545769189590
  I          92.54446149537834     94.14423706078544    -41.13628017548026
  O          91.62444128477600     96.66995582686701    -42.80930440805347
  I          91.50144630098934     91.71410576211971    -46.62919966773659
  C          90.63838147890607     99.48079775127444    -44.96701365522497
