24
Coordinates from ORCA-job haloligand_TightOptimization E -495.495229026950
  H      90.922493     97.134789    -46.545330
  H      92.183914     92.192429    -43.641792
  H      90.888481     94.745415    -46.862087
  H      93.449921     97.771004    -44.707966
  H      92.870781     98.204300    -46.333961
  H      93.082275     99.468002    -45.097897
  H      89.671066     99.350357    -44.392143
  H      91.177132    100.294167    -44.481533
  H      89.652809     97.194633    -45.252560
  H      90.412285     99.694290    -45.973064
  H      92.393906     96.716225    -42.383892
  C      91.150002     95.734001    -44.952999
  C      91.511002     95.542999    -43.613998
  C      91.883003     94.282997    -43.152000
  C      90.714996     97.095001    -45.476002
  N      91.397003     98.231003    -44.827000
  C      91.896004     93.176003    -44.013000
  C      91.167000     94.617996    -45.816002
  C      92.791000     98.431999    -45.271000
  C      91.536003     93.348000    -45.351002
  I      92.385002     94.073997    -41.117001
  O      91.524002     96.626999    -42.779999
  I      91.536003     91.734001    -46.681999
  C      90.613998     99.473000    -44.924999
24
Coordinates from ORCA-job haloligand_TightOptimization E -495.499022506197
  H      90.873147     97.107977    -46.559409
  H      92.183352     92.204427    -43.637507
  H      90.896291     94.741584    -46.849206
  H      93.446707     97.717162    -44.780314
  H      92.891531     98.293432    -46.358871
  H      93.113082     99.430886    -45.021047
  H      89.661438     99.339914    -44.423038
  H      91.156218    100.275325    -44.448824
  H      89.650142     97.193750    -45.265343
  H      90.420389     99.752651    -45.972726
  H      92.399609     96.732095    -42.346018
  C      91.150447     95.730999    -44.953707
  C      91.512932     95.543069    -43.614672
  C      91.885698     94.284181    -43.150259
  C      90.714588     97.090735    -45.479283
  N      91.397055     98.228329    -44.833560
  C      91.898004     93.175267    -44.008794
  C      91.166750     94.613070    -45.814229
  C      92.790529     98.428623    -45.279513
  C      91.536523     93.344195    -45.346788
  I      92.389936     94.079839    -41.115341
  O      91.526602     96.628934    -42.783115
  I      91.535429     91.727223    -46.674171
  C      90.613681     99.469939    -44.933490
24
Coordinates from ORCA-job haloligand_TightOptimization E -495.500516133628
  H      90.834543     97.087481    -46.567712
  H      92.189305     92.206697    -43.625745
  H      90.895409     94.738545    -46.846791
  H      93.432877     97.647445    -44.881260
  H      92.896594     98.410679    -46.377524
  H      93.154142     99.382652    -44.923591
  H      89.648868     99.328977    -44.458527
  H      91.138198    100.264726    -44.420100
  H      89.647729     97.193903    -45.277159
  H      90.437556     99.794610    -45.971896
  H      92.384757     96.731366    -42.316521
  C      91.151934     95.729574    -44.953110
  C      91.516960     95.545711    -43.614201
  C      91.891022     94.288324    -43.146775
  C      90.714631     97.087607    -45.481878
  N      91.397896     98.227330    -44.840771
  C      91.902126     93.176890    -44.002064
  C      91.167033     94.609122    -45.810366
  C      92.790473     98.426788    -45.289890
  C      91.538112     93.341755    -45.339878
  I      92.399096     94.090146    -41.112201
  O      91.531792     96.634025    -42.785870
  I      91.535124     91.720881    -46.662491
  C      90.613907     99.468373    -44.942905
24
Coordinates from ORCA-job haloligand_TightOptimization E -495.501419878628
  H      90.813320     97.076509    -46.572903
  H      92.196542     92.212401    -43.613271
  H      90.893088     94.734659    -46.841590
  H      93.399388     97.566660    -45.026430
  H      92.884205     98.568171    -46.381729
  H      93.205554     99.299817    -44.804468
  H      89.635403     99.318639    -44.499619
  H      91.119005    100.256889    -44.399804
  H      89.646586     97.193767    -45.283473
  H      90.463313     99.818967    -45.978367
  H      92.364743     96.713394    -42.274753
  C      91.153734     95.729741    -44.952052
  C      91.521835     95.550702    -43.613331
  C      91.897655     94.295147    -43.142405
  C      90.714481     97.085695    -45.484526
  N      91.398512     98.228009    -44.848871
  C      91.907498     93.180777    -43.993880
  C      91.167574     94.606348    -45.805472
  C      92.789975     98.426704    -45.301765
  C      91.540422     93.340821    -45.331442
  I      92.410354     94.104274    -41.108293
  O      91.537880     96.641875    -42.788792
  I      91.535429     91.715394    -46.648450
  C      90.613587     99.468248    -44.953541
24
Coordinates from ORCA-job haloligand_TightOptimization E -495.501936933097
  H      90.809949     97.074301    -46.575410
  H      92.203508     92.217877    -43.604058
  H      90.890931     94.731566    -46.837953
  H      93.360445     97.513431    -45.160149
  H      92.866523     98.702129    -46.367908
  H      93.248204     99.215706    -44.717504
  H      89.627669     99.314105    -44.527491
  H      91.109369    100.255314    -44.395338
  H      89.647115     97.193405    -45.282497
  H      90.483120     99.822971    -45.988804
  H      92.336225     96.679191    -42.223523
  C      91.155498     95.731168    -44.951318
  C      91.526625     95.556197    -43.612895
  C      91.904164     94.302211    -43.139170
  C      90.714334     97.085338    -45.486743
  N      91.399125     98.229856    -44.855886
  C      91.912759     93.185393    -43.987443
  C      91.168091     94.605322    -45.801520
  C      92.789484     98.427999    -45.312397
  C      91.542672     93.341373    -45.324656
  I      92.421415     94.117494    -41.105642
  O      91.543871     96.649754    -42.791547
  I      91.535694     91.712147    -46.636951
  C      90.613290     99.469360    -44.962423
24
Coordinates from ORCA-job haloligand_TightOptimization E -495.502185955462
  H      90.816969     97.077084    -46.575758
  H      92.208338     92.221588    -43.601659
  H      90.888792     94.730271    -46.836274
  H      93.340250     97.495925    -45.222965
  H      92.851360     98.759606    -46.359466
  H      93.267803     99.178476    -44.690177
  H      89.628179     99.316365    -44.532173
  H      91.112242    100.258760    -44.404492
  H      89.648629     97.193571    -45.277917
  H      90.488045     99.813836    -45.997351
  H      92.301451     96.639959    -42.173802
  C      91.156947     95.733034    -44.951476
  C      91.530553     95.560036    -43.613486
  C      91.909270     94.306812    -43.138688
  C      90.714469     97.086341    -45.487998
  N      91.400117     98.231914    -44.859997
  C      91.916603     93.188805    -43.985406
  C      91.168276     94.605998    -45.800117
  C      92.789594     98.429763    -45.319316
  C      91.544043     93.342814    -45.322161
  I      92.430267     94.125081    -41.105847
  O      91.549019     96.654751    -42.793707
  I      91.535088     91.711744    -46.632152
  C      90.613778     99.471072    -44.966844
24
Coordinates from ORCA-job haloligand_TightOptimization E -495.502369192576
  H      90.823933     97.080013    -46.575818
  H      92.213672     92.224622    -43.602747
  H      90.885696     94.729997    -46.835604
  H      93.332910     97.491597    -45.249795
  H      92.840233     98.779214    -46.361592
  H      93.277079     99.168443    -44.690100
  H      89.634177     99.322186    -44.524231
  H      91.122179    100.264267    -44.420006
  H      89.650491     97.194738    -45.272993
  H      90.482817     99.802696    -46.003631
  H      92.249076     96.594127    -42.113549
  C      91.158778     95.735159    -44.952307
  C      91.535722     95.563369    -43.615098
  C      91.915676     94.310584    -43.140129
  C      90.714905     97.087969    -45.488931
  N      91.402065     98.234130    -44.863660
  C      91.920950     93.191823    -43.985867
  C      91.168044     94.607368    -45.799970
  C      92.790384     98.431629    -45.326613
  C      91.545055     93.344626    -45.321826
  I      92.441742     94.130685    -41.108431
  O      91.556181     96.658815    -42.796343
  I      91.532911     91.712389    -46.630338
  C      90.615406     99.473159    -44.969648
24
Coordinates from ORCA-job haloligand_TightOptimization E -495.502570508896
  H      90.827289     97.082085    -46.575831
  H      92.221569     92.227582    -43.606640
  H      90.880226     94.730473    -46.834828
  H      93.335564     97.494350    -45.255254
  H      92.833625     98.774220    -46.374331
  H      93.280562     99.176038    -44.708519
  H      89.645612     99.330619    -44.507261
  H      91.137803    100.270742    -44.439511
  H      89.652974     97.197242    -45.267281
  H      90.470251     99.792838    -46.007113
  H      92.162064     96.540515    -42.036974
  C      91.161746     95.737577    -44.953555
  C      91.544223     95.566712    -43.617800
  C      91.925917     94.314209    -43.143481
  C      90.715896     97.090072    -45.489335
  N      91.405867     98.236568    -44.867785
  C      91.927460     93.194818    -43.988399
  C      91.167272     94.609153    -45.800408
  C      92.792285     98.433457    -45.336662
  C      91.546035     93.346696    -45.322896
  I      92.460404     94.135724    -41.113858
  O      91.568295     96.662763    -42.799954
  I      91.528137     91.713487    -46.630128
  C      90.619006     99.475667    -44.971421
24
Coordinates from ORCA-job haloligand_TightOptimization E -495.502779520373
  H      90.823247     97.082355    -46.575543
  H      92.231470     92.229503    -43.612596
  H      90.872245     94.731657    -46.833495
  H      93.348663     97.503862    -45.238994
  H      92.834473     98.744787    -46.395517
  H      93.277545     99.198666    -44.742014
  H      89.659800     99.338471    -44.487447
  H      91.154392    100.275701    -44.454674
  H      89.655746     97.200608    -45.261324
  H      90.456117     99.789520    -46.005483
  H      92.047549     96.495972    -41.964071
  C      91.165701     95.739513    -44.954596
  C      91.555637     95.569077    -43.620943
  C      91.939421     94.316612    -43.148215
  C      90.717461     97.091972    -45.488468
  N      91.411465     98.238428    -44.871350
  C      91.935671     93.196835    -43.992616
  C      91.165919     94.610701    -45.800949
  C      92.795303     98.434456    -45.348140
  C      91.546786     93.348284    -45.325006
  I      92.485280     94.138801    -41.121561
  O      91.584837     96.665489    -42.803749
  I      91.520746     91.714489    -46.631368
  C      90.624607     99.477847    -44.971108
24
Coordinates from ORCA-job haloligand_TightOptimization E -495.502914813966
  H      90.811987     97.080992    -46.574566
  H      92.242910     92.230708    -43.617867
  H      90.862414     94.732817    -46.830590
  H      93.362534     97.512766    -45.226962
  H      92.839075     98.717162    -46.415593
  H      93.275647     99.216514    -44.773130
  H      89.670963     99.341684    -44.476517
  H      91.165550    100.277143    -44.457129
  H      89.658587     97.203741    -45.254793
  H      90.451344     99.795118    -46.000524
  H      91.918945     96.467391    -41.908572
  C      91.170335     95.740686    -44.954618
  C      91.569101     95.570669    -43.623526
  C      91.955260     94.318197    -43.152754
  C      90.719373     97.093162    -45.486152
  N      91.418222     98.239487    -44.874279
  C      91.945143     93.198002    -43.996547
  C      91.164166     94.611453    -45.800387
  C      92.798953     98.434403    -45.360439
  C      91.547424     93.349033    -45.326375
  I      92.514590     94.141051    -41.129718
  O      91.604472     96.667469    -42.807097
  I      91.511594     91.714604    -46.631712
  C      90.631492     99.479353    -44.969379
24
Coordinates from ORCA-job haloligand_TightOptimization E -495.502947960508
  H      90.803208     97.080261    -46.572781
  H      92.252145     92.231577    -43.620645
  H      90.854427     94.733291    -46.827138
  H      93.369388     97.515627    -45.229584
  H      92.839779     98.707191    -46.427377
  H      93.278405     99.221748    -44.789795
  H      89.676071     99.340916    -44.475823
  H      91.169953    100.276298    -44.451037
  H      89.660963     97.205373    -45.248166
  H      90.456330     99.802057    -45.996573
  H      91.818025     96.453089    -41.881319
  C      91.174045     95.741318    -44.953695
  C      91.579939     95.571756    -43.624701
  C      91.968011     94.319321    -43.155407
  C      90.720894     97.093760    -45.483448
  N      91.423633     98.240031    -44.875946
  C      91.952748     93.198714    -43.998575
  C      91.162715     94.611669    -45.798855
  C      92.801805     98.434002    -45.369686
  C      91.547898     93.349289    -45.326301
  I      92.538217     94.142892    -41.135346
  O      91.620295     96.668943    -42.809022
  I      91.504158     91.714232    -46.630609
  C      90.637028     99.480251    -44.967395
24
Coordinates from ORCA-job haloligand_TightOptimization E -495.502955579332
  H      90.801826     97.080529    -46.572436
  H      92.253245     92.232028    -43.620356
  H      90.853037     94.733248    -46.826310
  H      93.369852     97.515631    -45.231616
  H      92.838795     98.707108    -46.428801
  H      93.279283     99.221822    -44.791719
  H      89.674290     99.339028    -44.481306
  H      91.167482    100.275132    -44.445337
  H      89.661191     97.205385    -45.246957
  H      90.462237     99.805499    -45.996329
  H      91.807962     96.448604    -41.879578
  C      91.174413     95.741543    -44.953358
  C      91.581332     95.572156    -43.624655
  C      91.969652     94.319759    -43.155463
  C      90.720976     97.093943    -45.482973
  N      91.424300     98.240244    -44.876207
  C      91.953622     93.199017    -43.998439
  C      91.162313     94.611759    -45.798328
  C      92.802104     98.434004    -45.371057
  C      91.547745     93.349418    -45.325872
  I      92.541423     94.143600    -41.135822
  O      91.622432     96.669469    -42.809184
  I      91.502828     91.714156    -46.629883
  C      90.637742     99.480525    -44.967239
24
Coordinates from ORCA-job haloligand_TightOptimization E -495.502958072342
  H      90.801513     97.080853    -46.572028
  H      92.254064     92.232448    -43.620112
  H      90.852027     94.733120    -46.825623
  H      93.369839     97.515399    -45.233735
  H      92.837256     98.707584    -46.429834
  H      93.280145     99.221682    -44.793204
  H      89.672445     99.337205    -44.486661
  H      91.165031    100.273913    -44.439949
  H      89.661408     97.205305    -45.245616
  H      90.468064     99.808360    -45.996251
  H      91.800555     96.445143    -41.878724
  C      91.174646     95.741745    -44.953039
  C      91.582399     95.572498    -43.624574
  C      91.970913     94.320130    -43.155466
  C      90.720984     97.094114    -45.482542
  N      91.424791     98.240436    -44.876375
  C      91.954251     93.199280    -43.998284
  C      91.161913     94.611852    -45.797852
  C      92.802295     98.434015    -45.372128
  C      91.547540     93.349540    -45.325477
  I      92.543958     94.144188    -41.136167
  O      91.624110     96.669915    -42.809273
  I      91.501654     91.714111    -46.629245
  C      90.638279     99.480771    -44.967069
24
Coordinates from ORCA-job haloligand_TightOptimization E -495.502958156903
  H      90.801689     97.080851    -46.571930
  H      92.254246     92.232436    -43.620146
  H      90.851773     94.733042    -46.825560
  H      93.369815     97.515338    -45.234026
  H      92.836967     98.707626    -46.430021
  H      93.280281     99.221723    -44.793504
  H      89.672284     99.336983    -44.487215
  H      91.164856    100.273752    -44.439289
  H      89.661475     97.205292    -45.245321
  H      90.468777     99.808653    -45.996196
  H      91.798741     96.445049    -41.878354
  C      91.174700     95.741765    -44.953003
  C      91.582614     95.572529    -43.624586
  C      91.971169     94.320162    -43.155511
  C      90.720991     97.094133    -45.482467
  N      91.424888     98.240453    -44.876401
  C      91.954388     93.199301    -43.998313
  C      91.161847     94.611862    -45.797801
  C      92.802333     98.434007    -45.372327
  C      91.547516     93.349551    -45.325458
  I      92.544461     94.144237    -41.136280
  O      91.624441     96.669956    -42.809304
  I      91.501446     91.714106    -46.629200
  C      90.638381     99.480798    -44.967014
