! HF-3c Opt TightSCF

%geom
	optimizehydrogens true
end

*xyz 0 1
H 90.922493 97.134789 -46.545330
H 92.183914 92.192429 -43.641792
H 90.888481 94.745415 -46.862087
H 93.449921 97.771004 -44.707966
H 92.870781 98.204300 -46.333961
H 93.082275 99.468002 -45.097897
H 89.671066 99.350357 -44.392143
H 91.177132 100.294167 -44.481533
H 89.652809 97.194633 -45.252560
H 90.412285 99.694290 -45.973064
H 92.393906 96.716225 -42.383892
C 91.150002 95.734001 -44.952999
C 91.511002 95.542999 -43.613998
C 91.883003 94.282997 -43.152000
C 90.714996 97.095001 -45.476002
N 91.397003 98.231003 -44.827000
C 91.896004 93.176003 -44.013000
C 91.167000 94.617996 -45.816002
C 92.791000 98.431999 -45.271000
C 91.536003 93.348000 -45.351002
I 92.385002 94.073997 -41.117001
O 91.524002 96.626999 -42.779999
I 91.536003 91.734001 -46.681999
C 90.613998 99.473000 -44.924999
*