38
Coordinates from ORCA-job 4aglTightSmallComplexFragmented_input E -852.662511308839
  H          94.03847900363128     95.56968873089886    -47.45454979409845
  H          93.27480714279287     96.47396852739881    -50.26555167908275
  H          91.38205369906710     94.79394468963362    -49.90630467715645
  H          92.97944576730984     94.07119266069336    -50.07263368634954
  H          92.24575825862050     94.22023321699045    -48.48185090016032
  H          94.94599254061113     97.73909302232931    -49.18000272394500
  H          92.54087957181535     97.77527788193504    -48.37292694760338
  H          90.81091290640504     97.08469098699300    -46.57803465913310
  H          92.28655872467832     92.25346024200871    -43.61731856246633
  H          90.89291879073602     94.75276147613863    -46.83440660404441
  H          93.33291756606350     97.54485813710730    -45.24922823026197
  H          92.81428762649600     98.80715230214386    -46.37389006921541
  H          93.24162195583997     99.22264427328545    -44.71045817447565
  H          89.60818548256040     99.32058650021226    -44.50021953198504
  H          91.08509928948806    100.28113283726921    -44.43136587612807
  H          89.64417014945856     97.18950151392390    -45.26872693162088
  H          90.41741572396090     99.80531765438535    -45.99779093389682
  H          91.74837611422923     96.45384841803603    -41.87095357364787
  N          94.87956813380680     97.31169285466524    -48.23695338999568
  C          94.28332716262726     95.99125473976650    -48.43095151040644
  C          95.25573762322547     95.02248212655729    -49.10008340242457
  O          95.77398138063315     95.29841968805736    -50.17963033920137
  C          92.99501211139518     96.08159529546519    -49.27954132879258
  O          92.05928217028189     96.96948880534350    -48.64699717158231
  C          92.36019262079112     94.70288775089460    -49.44413329214354
  C          91.17476635325470     95.75021850910848    -44.95655271175993
  C          91.56140310608849     95.58227036162189    -43.62162504004875
  C          91.96164715972675     94.33445604375484    -43.15024826900864
  C          90.70885754877960     97.09721203956359    -45.48911331004795
  N          91.38312294943528     98.25228346466449    -44.86620574535659
  C          91.97814364712971     93.21684173773455    -43.99735620637756
  C          91.19537179685118     94.62363366088144    -45.80561823787297
  C          92.76595771634025     98.46995445416428    -45.33647199889184
  C          91.59283231607439     93.36581781197711    -45.33106319833271
  I          92.50129642550272     94.15972551677119    -41.12166431770961
  O          91.57081910688392     96.67696681531916    -42.80166751139753
  I          91.59665572318659     91.73505725039921    -46.64146434097875
  C          90.57843163421632     99.48016300190164    -44.96641012239646
